
---------- Begin Simulation Statistics ----------
sim_seconds                                  0.037625                       # Number of seconds simulated
sim_ticks                                 37625213000                       # Number of ticks simulated
final_tick                               3065981235500                       # Number of ticks from beginning of simulation (restored from checkpoints and never reset)
sim_freq                                 1000000000000                       # Frequency of simulated ticks
host_inst_rate                                2106776                       # Simulator instruction rate (inst/s)
host_op_rate                                  2240629                       # Simulator op (including micro ops) rate (op/s)
host_tick_rate                              418665463                       # Simulator tick rate (ticks/s)
host_mem_usage                                1078168                       # Number of bytes of host memory used
host_seconds                                    89.87                       # Real time elapsed on the host
sim_insts                                   189334649                       # Number of instructions simulated
sim_ops                                     201363993                       # Number of ops (including micro ops) simulated
system.voltage_domain.voltage                       1                       # Voltage in Volts
system.clk_domain.clock                          1000                       # Clock period in ticks
system.pim_sys.voltage_domain.voltage               1                       # Voltage in Volts
system.pim_sys.clk_domain.clock                   500                       # Clock period in ticks
system.pim_sys.pim_memory.atomic_fadd_count            0                       # atomic fadd count
system.pim_sys.pim_memory.atomic_min_count            0                       # atomic min count
system.pim_sys.pim_memory.atomic_inc_count            0                       # atomic inc count
system.pim_sys.pim_memory.bytes_written::system.cpu7.data            1                       # Number of bytes written to this memory
system.pim_sys.pim_memory.bytes_written::total            1                       # Number of bytes written to this memory
system.pim_sys.pim_memory.num_writes::system.cpu7.data            1                       # Number of write requests responded to by this memory
system.pim_sys.pim_memory.num_writes::total            1                       # Number of write requests responded to by this memory
system.pim_sys.pim_memory.bw_write::system.cpu7.data           27                       # Write bandwidth from this memory (bytes/s)
system.pim_sys.pim_memory.bw_write::total           27                       # Write bandwidth from this memory (bytes/s)
system.pim_sys.pim_memory.bw_total::system.cpu7.data           27                       # Total bandwidth to/from this memory (bytes/s)
system.pim_sys.pim_memory.bw_total::total           27                       # Total bandwidth to/from this memory (bytes/s)
system.mem_ctrls10.clk_domain.voltage_domain.voltage            1                       # Voltage in Volts
system.mem_ctrls10.clk_domain.clock               800                       # Clock period in ticks
system.mem_ctrls10.atomic_fadd_count                0                       # atomic fadd count
system.mem_ctrls10.atomic_min_count                 0                       # atomic min count
system.mem_ctrls10.atomic_inc_count                 0                       # atomic inc count
system.mem_ctrls10.bytes_read::system.cpu0.data          256                       # Number of bytes read from this memory
system.mem_ctrls10.bytes_read::system.cpu1.data          256                       # Number of bytes read from this memory
system.mem_ctrls10.bytes_read::system.cpu3.inst          256                       # Number of bytes read from this memory
system.mem_ctrls10.bytes_read::system.cpu3.data          256                       # Number of bytes read from this memory
system.mem_ctrls10.bytes_read::system.cpu5.inst          256                       # Number of bytes read from this memory
system.mem_ctrls10.bytes_read::system.cpu5.data          256                       # Number of bytes read from this memory
system.mem_ctrls10.bytes_read::system.cpu6.inst         1024                       # Number of bytes read from this memory
system.mem_ctrls10.bytes_read::system.cpu6.data          768                       # Number of bytes read from this memory
system.mem_ctrls10.bytes_read::system.cpu7.inst          768                       # Number of bytes read from this memory
system.mem_ctrls10.bytes_read::system.cpu7.data         2560                       # Number of bytes read from this memory
system.mem_ctrls10.bytes_read::total             6656                       # Number of bytes read from this memory
system.mem_ctrls10.bytes_inst_read::system.cpu3.inst          256                       # Number of instructions bytes read from this memory
system.mem_ctrls10.bytes_inst_read::system.cpu5.inst          256                       # Number of instructions bytes read from this memory
system.mem_ctrls10.bytes_inst_read::system.cpu6.inst         1024                       # Number of instructions bytes read from this memory
system.mem_ctrls10.bytes_inst_read::system.cpu7.inst          768                       # Number of instructions bytes read from this memory
system.mem_ctrls10.bytes_inst_read::total         2304                       # Number of instructions bytes read from this memory
system.mem_ctrls10.bytes_written::writebacks         2560                       # Number of bytes written to this memory
system.mem_ctrls10.bytes_written::total          2560                       # Number of bytes written to this memory
system.mem_ctrls10.num_reads::system.cpu0.data            1                       # Number of read requests responded to by this memory
system.mem_ctrls10.num_reads::system.cpu1.data            1                       # Number of read requests responded to by this memory
system.mem_ctrls10.num_reads::system.cpu3.inst            1                       # Number of read requests responded to by this memory
system.mem_ctrls10.num_reads::system.cpu3.data            1                       # Number of read requests responded to by this memory
system.mem_ctrls10.num_reads::system.cpu5.inst            1                       # Number of read requests responded to by this memory
system.mem_ctrls10.num_reads::system.cpu5.data            1                       # Number of read requests responded to by this memory
system.mem_ctrls10.num_reads::system.cpu6.inst            4                       # Number of read requests responded to by this memory
system.mem_ctrls10.num_reads::system.cpu6.data            3                       # Number of read requests responded to by this memory
system.mem_ctrls10.num_reads::system.cpu7.inst            3                       # Number of read requests responded to by this memory
system.mem_ctrls10.num_reads::system.cpu7.data           10                       # Number of read requests responded to by this memory
system.mem_ctrls10.num_reads::total                26                       # Number of read requests responded to by this memory
system.mem_ctrls10.num_writes::writebacks           10                       # Number of write requests responded to by this memory
system.mem_ctrls10.num_writes::total               10                       # Number of write requests responded to by this memory
system.mem_ctrls10.bw_read::system.cpu0.data         6804                       # Total read bandwidth from this memory (bytes/s)
system.mem_ctrls10.bw_read::system.cpu1.data         6804                       # Total read bandwidth from this memory (bytes/s)
system.mem_ctrls10.bw_read::system.cpu3.inst         6804                       # Total read bandwidth from this memory (bytes/s)
system.mem_ctrls10.bw_read::system.cpu3.data         6804                       # Total read bandwidth from this memory (bytes/s)
system.mem_ctrls10.bw_read::system.cpu5.inst         6804                       # Total read bandwidth from this memory (bytes/s)
system.mem_ctrls10.bw_read::system.cpu5.data         6804                       # Total read bandwidth from this memory (bytes/s)
system.mem_ctrls10.bw_read::system.cpu6.inst        27216                       # Total read bandwidth from this memory (bytes/s)
system.mem_ctrls10.bw_read::system.cpu6.data        20412                       # Total read bandwidth from this memory (bytes/s)
system.mem_ctrls10.bw_read::system.cpu7.inst        20412                       # Total read bandwidth from this memory (bytes/s)
system.mem_ctrls10.bw_read::system.cpu7.data        68039                       # Total read bandwidth from this memory (bytes/s)
system.mem_ctrls10.bw_read::total              176903                       # Total read bandwidth from this memory (bytes/s)
system.mem_ctrls10.bw_inst_read::system.cpu3.inst         6804                       # Instruction read bandwidth from this memory (bytes/s)
system.mem_ctrls10.bw_inst_read::system.cpu5.inst         6804                       # Instruction read bandwidth from this memory (bytes/s)
system.mem_ctrls10.bw_inst_read::system.cpu6.inst        27216                       # Instruction read bandwidth from this memory (bytes/s)
system.mem_ctrls10.bw_inst_read::system.cpu7.inst        20412                       # Instruction read bandwidth from this memory (bytes/s)
system.mem_ctrls10.bw_inst_read::total          61236                       # Instruction read bandwidth from this memory (bytes/s)
system.mem_ctrls10.bw_write::writebacks         68039                       # Write bandwidth from this memory (bytes/s)
system.mem_ctrls10.bw_write::total              68039                       # Write bandwidth from this memory (bytes/s)
system.mem_ctrls10.bw_total::writebacks         68039                       # Total bandwidth to/from this memory (bytes/s)
system.mem_ctrls10.bw_total::system.cpu0.data         6804                       # Total bandwidth to/from this memory (bytes/s)
system.mem_ctrls10.bw_total::system.cpu1.data         6804                       # Total bandwidth to/from this memory (bytes/s)
system.mem_ctrls10.bw_total::system.cpu3.inst         6804                       # Total bandwidth to/from this memory (bytes/s)
system.mem_ctrls10.bw_total::system.cpu3.data         6804                       # Total bandwidth to/from this memory (bytes/s)
system.mem_ctrls10.bw_total::system.cpu5.inst         6804                       # Total bandwidth to/from this memory (bytes/s)
system.mem_ctrls10.bw_total::system.cpu5.data         6804                       # Total bandwidth to/from this memory (bytes/s)
system.mem_ctrls10.bw_total::system.cpu6.inst        27216                       # Total bandwidth to/from this memory (bytes/s)
system.mem_ctrls10.bw_total::system.cpu6.data        20412                       # Total bandwidth to/from this memory (bytes/s)
system.mem_ctrls10.bw_total::system.cpu7.inst        20412                       # Total bandwidth to/from this memory (bytes/s)
system.mem_ctrls10.bw_total::system.cpu7.data        68039                       # Total bandwidth to/from this memory (bytes/s)
system.mem_ctrls10.bw_total::total             244942                       # Total bandwidth to/from this memory (bytes/s)
system.mem_ctrls10.readReqs                        26                       # Number of read requests accepted
system.mem_ctrls10.writeReqs                       10                       # Number of write requests accepted
system.mem_ctrls10.readBursts                     208                       # Number of DRAM read bursts, including those serviced by the write queue
system.mem_ctrls10.writeBursts                     80                       # Number of DRAM write bursts, including those merged in the write queue
system.mem_ctrls10.bytesReadDRAM                 6656                       # Total number of bytes read from DRAM
system.mem_ctrls10.bytesReadWrQ                     0                       # Total number of bytes read from write queue
system.mem_ctrls10.bytesWritten                  3072                       # Total number of bytes written to DRAM
system.mem_ctrls10.bytesReadSys                  6656                       # Total read bytes from the system interface side
system.mem_ctrls10.bytesWrittenSys               2560                       # Total written bytes from the system interface side
system.mem_ctrls10.servicedByWrQ                    0                       # Number of DRAM read bursts serviced by the write queue
system.mem_ctrls10.mergedWrBursts                   0                       # Number of DRAM write bursts merged with an existing one
system.mem_ctrls10.neitherReadNorWriteReqs           51                       # Number of requests that are neither read nor write
system.mem_ctrls10.perBankRdBursts::0               8                       # Per bank write bursts
system.mem_ctrls10.perBankRdBursts::1              32                       # Per bank write bursts
system.mem_ctrls10.perBankRdBursts::2              24                       # Per bank write bursts
system.mem_ctrls10.perBankRdBursts::3              40                       # Per bank write bursts
system.mem_ctrls10.perBankRdBursts::4              24                       # Per bank write bursts
system.mem_ctrls10.perBankRdBursts::5              32                       # Per bank write bursts
system.mem_ctrls10.perBankRdBursts::6              32                       # Per bank write bursts
system.mem_ctrls10.perBankRdBursts::7              16                       # Per bank write bursts
system.mem_ctrls10.perBankWrBursts::0               0                       # Per bank write bursts
system.mem_ctrls10.perBankWrBursts::1               8                       # Per bank write bursts
system.mem_ctrls10.perBankWrBursts::2              24                       # Per bank write bursts
system.mem_ctrls10.perBankWrBursts::3               8                       # Per bank write bursts
system.mem_ctrls10.perBankWrBursts::4               9                       # Per bank write bursts
system.mem_ctrls10.perBankWrBursts::5               8                       # Per bank write bursts
system.mem_ctrls10.perBankWrBursts::6              16                       # Per bank write bursts
system.mem_ctrls10.perBankWrBursts::7              23                       # Per bank write bursts
system.mem_ctrls10.numRdRetry                       0                       # Number of times read queue was full causing retry
system.mem_ctrls10.numWrRetry                       0                       # Number of times write queue was full causing retry
system.mem_ctrls10.totGap                 37613097000                       # Total gap between requests
system.mem_ctrls10.readPktSize::0                   0                       # Read request sizes (log2)
system.mem_ctrls10.readPktSize::1                   0                       # Read request sizes (log2)
system.mem_ctrls10.readPktSize::2                   0                       # Read request sizes (log2)
system.mem_ctrls10.readPktSize::3                   0                       # Read request sizes (log2)
system.mem_ctrls10.readPktSize::4                   0                       # Read request sizes (log2)
system.mem_ctrls10.readPktSize::5                 208                       # Read request sizes (log2)
system.mem_ctrls10.writePktSize::0                  0                       # Write request sizes (log2)
system.mem_ctrls10.writePktSize::1                  0                       # Write request sizes (log2)
system.mem_ctrls10.writePktSize::2                  0                       # Write request sizes (log2)
system.mem_ctrls10.writePktSize::3                  0                       # Write request sizes (log2)
system.mem_ctrls10.writePktSize::4                  0                       # Write request sizes (log2)
system.mem_ctrls10.writePktSize::5                 80                       # Write request sizes (log2)
system.mem_ctrls10.rdQLenPdf::0                    26                       # What read queue length does an incoming req see
system.mem_ctrls10.rdQLenPdf::1                    26                       # What read queue length does an incoming req see
system.mem_ctrls10.rdQLenPdf::2                    26                       # What read queue length does an incoming req see
system.mem_ctrls10.rdQLenPdf::3                    26                       # What read queue length does an incoming req see
system.mem_ctrls10.rdQLenPdf::4                    26                       # What read queue length does an incoming req see
system.mem_ctrls10.rdQLenPdf::5                    26                       # What read queue length does an incoming req see
system.mem_ctrls10.rdQLenPdf::6                    26                       # What read queue length does an incoming req see
system.mem_ctrls10.rdQLenPdf::7                    26                       # What read queue length does an incoming req see
system.mem_ctrls10.rdQLenPdf::8                     0                       # What read queue length does an incoming req see
system.mem_ctrls10.rdQLenPdf::9                     0                       # What read queue length does an incoming req see
system.mem_ctrls10.rdQLenPdf::10                    0                       # What read queue length does an incoming req see
system.mem_ctrls10.rdQLenPdf::11                    0                       # What read queue length does an incoming req see
system.mem_ctrls10.rdQLenPdf::12                    0                       # What read queue length does an incoming req see
system.mem_ctrls10.rdQLenPdf::13                    0                       # What read queue length does an incoming req see
system.mem_ctrls10.rdQLenPdf::14                    0                       # What read queue length does an incoming req see
system.mem_ctrls10.rdQLenPdf::15                    0                       # What read queue length does an incoming req see
system.mem_ctrls10.rdQLenPdf::16                    0                       # What read queue length does an incoming req see
system.mem_ctrls10.rdQLenPdf::17                    0                       # What read queue length does an incoming req see
system.mem_ctrls10.rdQLenPdf::18                    0                       # What read queue length does an incoming req see
system.mem_ctrls10.rdQLenPdf::19                    0                       # What read queue length does an incoming req see
system.mem_ctrls10.rdQLenPdf::20                    0                       # What read queue length does an incoming req see
system.mem_ctrls10.rdQLenPdf::21                    0                       # What read queue length does an incoming req see
system.mem_ctrls10.rdQLenPdf::22                    0                       # What read queue length does an incoming req see
system.mem_ctrls10.rdQLenPdf::23                    0                       # What read queue length does an incoming req see
system.mem_ctrls10.rdQLenPdf::24                    0                       # What read queue length does an incoming req see
system.mem_ctrls10.rdQLenPdf::25                    0                       # What read queue length does an incoming req see
system.mem_ctrls10.rdQLenPdf::26                    0                       # What read queue length does an incoming req see
system.mem_ctrls10.rdQLenPdf::27                    0                       # What read queue length does an incoming req see
system.mem_ctrls10.rdQLenPdf::28                    0                       # What read queue length does an incoming req see
system.mem_ctrls10.rdQLenPdf::29                    0                       # What read queue length does an incoming req see
system.mem_ctrls10.rdQLenPdf::30                    0                       # What read queue length does an incoming req see
system.mem_ctrls10.rdQLenPdf::31                    0                       # What read queue length does an incoming req see
system.mem_ctrls10.rdQLenPdf::32                    0                       # What read queue length does an incoming req see
system.mem_ctrls10.rdQLenPdf::33                    0                       # What read queue length does an incoming req see
system.mem_ctrls10.rdQLenPdf::34                    0                       # What read queue length does an incoming req see
system.mem_ctrls10.rdQLenPdf::35                    0                       # What read queue length does an incoming req see
system.mem_ctrls10.rdQLenPdf::36                    0                       # What read queue length does an incoming req see
system.mem_ctrls10.rdQLenPdf::37                    0                       # What read queue length does an incoming req see
system.mem_ctrls10.rdQLenPdf::38                    0                       # What read queue length does an incoming req see
system.mem_ctrls10.rdQLenPdf::39                    0                       # What read queue length does an incoming req see
system.mem_ctrls10.rdQLenPdf::40                    0                       # What read queue length does an incoming req see
system.mem_ctrls10.rdQLenPdf::41                    0                       # What read queue length does an incoming req see
system.mem_ctrls10.rdQLenPdf::42                    0                       # What read queue length does an incoming req see
system.mem_ctrls10.rdQLenPdf::43                    0                       # What read queue length does an incoming req see
system.mem_ctrls10.rdQLenPdf::44                    0                       # What read queue length does an incoming req see
system.mem_ctrls10.rdQLenPdf::45                    0                       # What read queue length does an incoming req see
system.mem_ctrls10.rdQLenPdf::46                    0                       # What read queue length does an incoming req see
system.mem_ctrls10.rdQLenPdf::47                    0                       # What read queue length does an incoming req see
system.mem_ctrls10.rdQLenPdf::48                    0                       # What read queue length does an incoming req see
system.mem_ctrls10.rdQLenPdf::49                    0                       # What read queue length does an incoming req see
system.mem_ctrls10.rdQLenPdf::50                    0                       # What read queue length does an incoming req see
system.mem_ctrls10.rdQLenPdf::51                    0                       # What read queue length does an incoming req see
system.mem_ctrls10.rdQLenPdf::52                    0                       # What read queue length does an incoming req see
system.mem_ctrls10.rdQLenPdf::53                    0                       # What read queue length does an incoming req see
system.mem_ctrls10.rdQLenPdf::54                    0                       # What read queue length does an incoming req see
system.mem_ctrls10.rdQLenPdf::55                    0                       # What read queue length does an incoming req see
system.mem_ctrls10.rdQLenPdf::56                    0                       # What read queue length does an incoming req see
system.mem_ctrls10.rdQLenPdf::57                    0                       # What read queue length does an incoming req see
system.mem_ctrls10.rdQLenPdf::58                    0                       # What read queue length does an incoming req see
system.mem_ctrls10.rdQLenPdf::59                    0                       # What read queue length does an incoming req see
system.mem_ctrls10.rdQLenPdf::60                    0                       # What read queue length does an incoming req see
system.mem_ctrls10.rdQLenPdf::61                    0                       # What read queue length does an incoming req see
system.mem_ctrls10.rdQLenPdf::62                    0                       # What read queue length does an incoming req see
system.mem_ctrls10.rdQLenPdf::63                    0                       # What read queue length does an incoming req see
system.mem_ctrls10.wrQLenPdf::0                     0                       # What write queue length does an incoming req see
system.mem_ctrls10.wrQLenPdf::1                     0                       # What write queue length does an incoming req see
system.mem_ctrls10.wrQLenPdf::2                     0                       # What write queue length does an incoming req see
system.mem_ctrls10.wrQLenPdf::3                     0                       # What write queue length does an incoming req see
system.mem_ctrls10.wrQLenPdf::4                     0                       # What write queue length does an incoming req see
system.mem_ctrls10.wrQLenPdf::5                     0                       # What write queue length does an incoming req see
system.mem_ctrls10.wrQLenPdf::6                     0                       # What write queue length does an incoming req see
system.mem_ctrls10.wrQLenPdf::7                     0                       # What write queue length does an incoming req see
system.mem_ctrls10.wrQLenPdf::8                     0                       # What write queue length does an incoming req see
system.mem_ctrls10.wrQLenPdf::9                     0                       # What write queue length does an incoming req see
system.mem_ctrls10.wrQLenPdf::10                    0                       # What write queue length does an incoming req see
system.mem_ctrls10.wrQLenPdf::11                    0                       # What write queue length does an incoming req see
system.mem_ctrls10.wrQLenPdf::12                    0                       # What write queue length does an incoming req see
system.mem_ctrls10.wrQLenPdf::13                    0                       # What write queue length does an incoming req see
system.mem_ctrls10.wrQLenPdf::14                    0                       # What write queue length does an incoming req see
system.mem_ctrls10.wrQLenPdf::15                    3                       # What write queue length does an incoming req see
system.mem_ctrls10.wrQLenPdf::16                    3                       # What write queue length does an incoming req see
system.mem_ctrls10.wrQLenPdf::17                    3                       # What write queue length does an incoming req see
system.mem_ctrls10.wrQLenPdf::18                    3                       # What write queue length does an incoming req see
system.mem_ctrls10.wrQLenPdf::19                    3                       # What write queue length does an incoming req see
system.mem_ctrls10.wrQLenPdf::20                    3                       # What write queue length does an incoming req see
system.mem_ctrls10.wrQLenPdf::21                    3                       # What write queue length does an incoming req see
system.mem_ctrls10.wrQLenPdf::22                    3                       # What write queue length does an incoming req see
system.mem_ctrls10.wrQLenPdf::23                    3                       # What write queue length does an incoming req see
system.mem_ctrls10.wrQLenPdf::24                    3                       # What write queue length does an incoming req see
system.mem_ctrls10.wrQLenPdf::25                    3                       # What write queue length does an incoming req see
system.mem_ctrls10.wrQLenPdf::26                    3                       # What write queue length does an incoming req see
system.mem_ctrls10.wrQLenPdf::27                    3                       # What write queue length does an incoming req see
system.mem_ctrls10.wrQLenPdf::28                    3                       # What write queue length does an incoming req see
system.mem_ctrls10.wrQLenPdf::29                    3                       # What write queue length does an incoming req see
system.mem_ctrls10.wrQLenPdf::30                    3                       # What write queue length does an incoming req see
system.mem_ctrls10.wrQLenPdf::31                    4                       # What write queue length does an incoming req see
system.mem_ctrls10.wrQLenPdf::32                    4                       # What write queue length does an incoming req see
system.mem_ctrls10.wrQLenPdf::33                    4                       # What write queue length does an incoming req see
system.mem_ctrls10.wrQLenPdf::34                    4                       # What write queue length does an incoming req see
system.mem_ctrls10.wrQLenPdf::35                    4                       # What write queue length does an incoming req see
system.mem_ctrls10.wrQLenPdf::36                    4                       # What write queue length does an incoming req see
system.mem_ctrls10.wrQLenPdf::37                    4                       # What write queue length does an incoming req see
system.mem_ctrls10.wrQLenPdf::38                    4                       # What write queue length does an incoming req see
system.mem_ctrls10.wrQLenPdf::39                    0                       # What write queue length does an incoming req see
system.mem_ctrls10.wrQLenPdf::40                    0                       # What write queue length does an incoming req see
system.mem_ctrls10.wrQLenPdf::41                    0                       # What write queue length does an incoming req see
system.mem_ctrls10.wrQLenPdf::42                    0                       # What write queue length does an incoming req see
system.mem_ctrls10.wrQLenPdf::43                    0                       # What write queue length does an incoming req see
system.mem_ctrls10.wrQLenPdf::44                    0                       # What write queue length does an incoming req see
system.mem_ctrls10.wrQLenPdf::45                    0                       # What write queue length does an incoming req see
system.mem_ctrls10.wrQLenPdf::46                    0                       # What write queue length does an incoming req see
system.mem_ctrls10.wrQLenPdf::47                    0                       # What write queue length does an incoming req see
system.mem_ctrls10.wrQLenPdf::48                    0                       # What write queue length does an incoming req see
system.mem_ctrls10.wrQLenPdf::49                    0                       # What write queue length does an incoming req see
system.mem_ctrls10.wrQLenPdf::50                    0                       # What write queue length does an incoming req see
system.mem_ctrls10.wrQLenPdf::51                    0                       # What write queue length does an incoming req see
system.mem_ctrls10.wrQLenPdf::52                    0                       # What write queue length does an incoming req see
system.mem_ctrls10.wrQLenPdf::53                    0                       # What write queue length does an incoming req see
system.mem_ctrls10.wrQLenPdf::54                    0                       # What write queue length does an incoming req see
system.mem_ctrls10.wrQLenPdf::55                    0                       # What write queue length does an incoming req see
system.mem_ctrls10.wrQLenPdf::56                    0                       # What write queue length does an incoming req see
system.mem_ctrls10.wrQLenPdf::57                    0                       # What write queue length does an incoming req see
system.mem_ctrls10.wrQLenPdf::58                    0                       # What write queue length does an incoming req see
system.mem_ctrls10.wrQLenPdf::59                    0                       # What write queue length does an incoming req see
system.mem_ctrls10.wrQLenPdf::60                    0                       # What write queue length does an incoming req see
system.mem_ctrls10.wrQLenPdf::61                    0                       # What write queue length does an incoming req see
system.mem_ctrls10.wrQLenPdf::62                    0                       # What write queue length does an incoming req see
system.mem_ctrls10.wrQLenPdf::63                    0                       # What write queue length does an incoming req see
system.mem_ctrls10.bytesPerActivate::samples           42                       # Bytes accessed per row activation
system.mem_ctrls10.bytesPerActivate::mean   231.619048                       # Bytes accessed per row activation
system.mem_ctrls10.bytesPerActivate::gmean   207.352059                       # Bytes accessed per row activation
system.mem_ctrls10.bytesPerActivate::stdev    66.228338                       # Bytes accessed per row activation
system.mem_ctrls10.bytesPerActivate::32-63            4      9.52%      9.52% # Bytes accessed per row activation
system.mem_ctrls10.bytesPerActivate::224-255            4      9.52%     19.05% # Bytes accessed per row activation
system.mem_ctrls10.bytesPerActivate::256-287           34     80.95%    100.00% # Bytes accessed per row activation
system.mem_ctrls10.bytesPerActivate::total           42                       # Bytes accessed per row activation
system.mem_ctrls10.rdPerTurnAround::samples            4                       # Reads before turning the bus around for writes
system.mem_ctrls10.rdPerTurnAround::mean           60                       # Reads before turning the bus around for writes
system.mem_ctrls10.rdPerTurnAround::gmean    55.853655                       # Reads before turning the bus around for writes
system.mem_ctrls10.rdPerTurnAround::stdev    24.873011                       # Reads before turning the bus around for writes
system.mem_ctrls10.rdPerTurnAround::32-33            1     25.00%     25.00% # Reads before turning the bus around for writes
system.mem_ctrls10.rdPerTurnAround::48-49            1     25.00%     50.00% # Reads before turning the bus around for writes
system.mem_ctrls10.rdPerTurnAround::72-73            1     25.00%     75.00% # Reads before turning the bus around for writes
system.mem_ctrls10.rdPerTurnAround::88-89            1     25.00%    100.00% # Reads before turning the bus around for writes
system.mem_ctrls10.rdPerTurnAround::total            4                       # Reads before turning the bus around for writes
system.mem_ctrls10.wrPerTurnAround::samples            4                       # Writes before turning the bus around for reads
system.mem_ctrls10.wrPerTurnAround::mean           24                       # Writes before turning the bus around for reads
system.mem_ctrls10.wrPerTurnAround::gmean    24.000000                       # Writes before turning the bus around for reads
system.mem_ctrls10.wrPerTurnAround::24              4    100.00%    100.00% # Writes before turning the bus around for reads
system.mem_ctrls10.wrPerTurnAround::total            4                       # Writes before turning the bus around for reads
system.mem_ctrls10.totQLat                    6261600                       # Total ticks spent queuing
system.mem_ctrls10.totMemAccLat               9787200                       # Total ticks spent from burst creation until serviced by the DRAM
system.mem_ctrls10.totBusLat                   665600                       # Total ticks spent in databus transfers
system.mem_ctrls10.avgQLat                   30103.85                       # Average queueing delay per DRAM burst
system.mem_ctrls10.avgBusLat                  3200.00                       # Average bus latency per DRAM burst
system.mem_ctrls10.avgMemAccLat              47053.85                       # Average memory access latency per DRAM burst
system.mem_ctrls10.avgRdBW                       0.18                       # Average DRAM read bandwidth in MiByte/s
system.mem_ctrls10.avgWrBW                       0.08                       # Average achieved write bandwidth in MiByte/s
system.mem_ctrls10.avgRdBWSys                    0.18                       # Average system read bandwidth in MiByte/s
system.mem_ctrls10.avgWrBWSys                    0.07                       # Average system write bandwidth in MiByte/s
system.mem_ctrls10.peakBW                    10000.00                       # Theoretical peak bandwidth in MiByte/s
system.mem_ctrls10.busUtil                       0.00                       # Data bus utilization in percentage
system.mem_ctrls10.busUtilRead                   0.00                       # Data bus utilization in percentage for reads
system.mem_ctrls10.busUtilWrite                  0.00                       # Data bus utilization in percentage for writes
system.mem_ctrls10.avgRdQLen                     8.00                       # Average read queue length when enqueuing
system.mem_ctrls10.avgWrQLen                    30.80                       # Average write queue length when enqueuing
system.mem_ctrls10.readRowHits                    182                       # Number of row buffer hits during reads
system.mem_ctrls10.writeRowHits                    80                       # Number of row buffer hits during writes
system.mem_ctrls10.readRowHitRate               87.50                       # Row buffer hit rate for reads
system.mem_ctrls10.writeRowHitRate             100.00                       # Row buffer hit rate for writes
system.mem_ctrls10.avgGap                1044808250.00                       # Average gap between requests
system.mem_ctrls10.pageHitRate                  90.97                       # Row buffer hit rate, read and write combined
system.mem_ctrls10.memoryStateTime::IDLE  36800098300                       # Time in different power states
system.mem_ctrls10.memoryStateTime::REF     817743600                       # Time in different power states
system.mem_ctrls10.memoryStateTime::PRE_PDN            0                       # Time in different power states
system.mem_ctrls10.memoryStateTime::ACT       7063100                       # Time in different power states
system.mem_ctrls10.memoryStateTime::ACT_PDN            0                       # Time in different power states
system.mem_ctrls10.actEnergy::0          624153.600000                       # Energy for activate commands per rank (pJ)
system.mem_ctrls10.actEnergy::1          607219.200000                       # Energy for activate commands per rank (pJ)
system.mem_ctrls10.actEnergy::2          580003.200000                       # Energy for activate commands per rank (pJ)
system.mem_ctrls10.actEnergy::3          567907.200000                       # Energy for activate commands per rank (pJ)
system.mem_ctrls10.preEnergy::0                421056                       # Energy for precharge commands per rank (pJ)
system.mem_ctrls10.preEnergy::1          409632.000000                       # Energy for precharge commands per rank (pJ)
system.mem_ctrls10.preEnergy::2          391272.000000                       # Energy for precharge commands per rank (pJ)
system.mem_ctrls10.preEnergy::3          383112.000000                       # Energy for precharge commands per rank (pJ)
system.mem_ctrls10.readEnergy::0         2571878.400000                       # Energy for read commands per rank (pJ)
system.mem_ctrls10.readEnergy::1         2408140.800000                       # Energy for read commands per rank (pJ)
system.mem_ctrls10.readEnergy::2         2268364.800000                       # Energy for read commands per rank (pJ)
system.mem_ctrls10.readEnergy::3              2233920                       # Energy for read commands per rank (pJ)
system.mem_ctrls10.writeEnergy::0        1021870.080000                       # Energy for write commands per rank (pJ)
system.mem_ctrls10.writeEnergy::1        992010.240000                       # Energy for write commands per rank (pJ)
system.mem_ctrls10.writeEnergy::2        962565.120000                       # Energy for write commands per rank (pJ)
system.mem_ctrls10.writeEnergy::3        948879.360000                       # Energy for write commands per rank (pJ)
system.mem_ctrls10.refreshEnergy::0      579014807.040000                       # Energy for refresh commands per rank (pJ)
system.mem_ctrls10.refreshEnergy::1      579014807.040000                       # Energy for refresh commands per rank (pJ)
system.mem_ctrls10.refreshEnergy::2      579014807.040000                       # Energy for refresh commands per rank (pJ)
system.mem_ctrls10.refreshEnergy::3      579014807.040000                       # Energy for refresh commands per rank (pJ)
system.mem_ctrls10.actBackEnergy::0      181681398.720000                       # Energy for active background per rank (pJ)
system.mem_ctrls10.actBackEnergy::1      185692593.600000                       # Energy for active background per rank (pJ)
system.mem_ctrls10.actBackEnergy::2      184625608.320000                       # Energy for active background per rank (pJ)
system.mem_ctrls10.actBackEnergy::3      183228333.120000                       # Energy for active background per rank (pJ)
system.mem_ctrls10.preBackEnergy::0        7993398000                       # Energy for precharge background per rank (pJ)
system.mem_ctrls10.preBackEnergy::1      7989879408.000001                       # Energy for precharge background per rank (pJ)
system.mem_ctrls10.preBackEnergy::2        7990815360                       # Energy for precharge background per rank (pJ)
system.mem_ctrls10.preBackEnergy::3        7992041040                       # Energy for precharge background per rank (pJ)
system.mem_ctrls10.totalEnergy::0        8758733163.840000                       # Total energy per rank (pJ)
system.mem_ctrls10.totalEnergy::1        8759003810.880001                       # Total energy per rank (pJ)
system.mem_ctrls10.totalEnergy::2        8758657980.480000                       # Total energy per rank (pJ)
system.mem_ctrls10.totalEnergy::3        8758417998.719999                       # Total energy per rank (pJ)
system.mem_ctrls10.averagePower::0          64.459581                       # Core power per rank (mW)
system.mem_ctrls10.averagePower::1          64.461573                       # Core power per rank (mW)
system.mem_ctrls10.averagePower::2          64.459028                       # Core power per rank (mW)
system.mem_ctrls10.averagePower::3          64.457262                       # Core power per rank (mW)
system.mem_ctrls12.clk_domain.voltage_domain.voltage            1                       # Voltage in Volts
system.mem_ctrls12.clk_domain.clock               800                       # Clock period in ticks
system.mem_ctrls12.atomic_fadd_count                0                       # atomic fadd count
system.mem_ctrls12.atomic_min_count                 0                       # atomic min count
system.mem_ctrls12.atomic_inc_count                 0                       # atomic inc count
system.mem_ctrls12.bytes_read::system.cpu0.data          512                       # Number of bytes read from this memory
system.mem_ctrls12.bytes_read::system.cpu1.data          256                       # Number of bytes read from this memory
system.mem_ctrls12.bytes_read::system.cpu3.data          256                       # Number of bytes read from this memory
system.mem_ctrls12.bytes_read::system.cpu4.inst          256                       # Number of bytes read from this memory
system.mem_ctrls12.bytes_read::system.cpu4.data          256                       # Number of bytes read from this memory
system.mem_ctrls12.bytes_read::system.cpu5.data          256                       # Number of bytes read from this memory
system.mem_ctrls12.bytes_read::system.cpu6.inst          768                       # Number of bytes read from this memory
system.mem_ctrls12.bytes_read::system.cpu6.data         1024                       # Number of bytes read from this memory
system.mem_ctrls12.bytes_read::system.cpu7.data         3072                       # Number of bytes read from this memory
system.mem_ctrls12.bytes_read::total             6656                       # Number of bytes read from this memory
system.mem_ctrls12.bytes_inst_read::system.cpu4.inst          256                       # Number of instructions bytes read from this memory
system.mem_ctrls12.bytes_inst_read::system.cpu6.inst          768                       # Number of instructions bytes read from this memory
system.mem_ctrls12.bytes_inst_read::total         1024                       # Number of instructions bytes read from this memory
system.mem_ctrls12.bytes_written::writebacks         4864                       # Number of bytes written to this memory
system.mem_ctrls12.bytes_written::total          4864                       # Number of bytes written to this memory
system.mem_ctrls12.num_reads::system.cpu0.data            2                       # Number of read requests responded to by this memory
system.mem_ctrls12.num_reads::system.cpu1.data            1                       # Number of read requests responded to by this memory
system.mem_ctrls12.num_reads::system.cpu3.data            1                       # Number of read requests responded to by this memory
system.mem_ctrls12.num_reads::system.cpu4.inst            1                       # Number of read requests responded to by this memory
system.mem_ctrls12.num_reads::system.cpu4.data            1                       # Number of read requests responded to by this memory
system.mem_ctrls12.num_reads::system.cpu5.data            1                       # Number of read requests responded to by this memory
system.mem_ctrls12.num_reads::system.cpu6.inst            3                       # Number of read requests responded to by this memory
system.mem_ctrls12.num_reads::system.cpu6.data            4                       # Number of read requests responded to by this memory
system.mem_ctrls12.num_reads::system.cpu7.data           12                       # Number of read requests responded to by this memory
system.mem_ctrls12.num_reads::total                26                       # Number of read requests responded to by this memory
system.mem_ctrls12.num_writes::writebacks           19                       # Number of write requests responded to by this memory
system.mem_ctrls12.num_writes::total               19                       # Number of write requests responded to by this memory
system.mem_ctrls12.bw_read::system.cpu0.data        13608                       # Total read bandwidth from this memory (bytes/s)
system.mem_ctrls12.bw_read::system.cpu1.data         6804                       # Total read bandwidth from this memory (bytes/s)
system.mem_ctrls12.bw_read::system.cpu3.data         6804                       # Total read bandwidth from this memory (bytes/s)
system.mem_ctrls12.bw_read::system.cpu4.inst         6804                       # Total read bandwidth from this memory (bytes/s)
system.mem_ctrls12.bw_read::system.cpu4.data         6804                       # Total read bandwidth from this memory (bytes/s)
system.mem_ctrls12.bw_read::system.cpu5.data         6804                       # Total read bandwidth from this memory (bytes/s)
system.mem_ctrls12.bw_read::system.cpu6.inst        20412                       # Total read bandwidth from this memory (bytes/s)
system.mem_ctrls12.bw_read::system.cpu6.data        27216                       # Total read bandwidth from this memory (bytes/s)
system.mem_ctrls12.bw_read::system.cpu7.data        81647                       # Total read bandwidth from this memory (bytes/s)
system.mem_ctrls12.bw_read::total              176903                       # Total read bandwidth from this memory (bytes/s)
system.mem_ctrls12.bw_inst_read::system.cpu4.inst         6804                       # Instruction read bandwidth from this memory (bytes/s)
system.mem_ctrls12.bw_inst_read::system.cpu6.inst        20412                       # Instruction read bandwidth from this memory (bytes/s)
system.mem_ctrls12.bw_inst_read::total          27216                       # Instruction read bandwidth from this memory (bytes/s)
system.mem_ctrls12.bw_write::writebacks        129275                       # Write bandwidth from this memory (bytes/s)
system.mem_ctrls12.bw_write::total             129275                       # Write bandwidth from this memory (bytes/s)
system.mem_ctrls12.bw_total::writebacks        129275                       # Total bandwidth to/from this memory (bytes/s)
system.mem_ctrls12.bw_total::system.cpu0.data        13608                       # Total bandwidth to/from this memory (bytes/s)
system.mem_ctrls12.bw_total::system.cpu1.data         6804                       # Total bandwidth to/from this memory (bytes/s)
system.mem_ctrls12.bw_total::system.cpu3.data         6804                       # Total bandwidth to/from this memory (bytes/s)
system.mem_ctrls12.bw_total::system.cpu4.inst         6804                       # Total bandwidth to/from this memory (bytes/s)
system.mem_ctrls12.bw_total::system.cpu4.data         6804                       # Total bandwidth to/from this memory (bytes/s)
system.mem_ctrls12.bw_total::system.cpu5.data         6804                       # Total bandwidth to/from this memory (bytes/s)
system.mem_ctrls12.bw_total::system.cpu6.inst        20412                       # Total bandwidth to/from this memory (bytes/s)
system.mem_ctrls12.bw_total::system.cpu6.data        27216                       # Total bandwidth to/from this memory (bytes/s)
system.mem_ctrls12.bw_total::system.cpu7.data        81647                       # Total bandwidth to/from this memory (bytes/s)
system.mem_ctrls12.bw_total::total             306178                       # Total bandwidth to/from this memory (bytes/s)
system.mem_ctrls12.readReqs                        26                       # Number of read requests accepted
system.mem_ctrls12.writeReqs                       19                       # Number of write requests accepted
system.mem_ctrls12.readBursts                     208                       # Number of DRAM read bursts, including those serviced by the write queue
system.mem_ctrls12.writeBursts                    152                       # Number of DRAM write bursts, including those merged in the write queue
system.mem_ctrls12.bytesReadDRAM                 6656                       # Total number of bytes read from DRAM
system.mem_ctrls12.bytesReadWrQ                     0                       # Total number of bytes read from write queue
system.mem_ctrls12.bytesWritten                  4864                       # Total number of bytes written to DRAM
system.mem_ctrls12.bytesReadSys                  6656                       # Total read bytes from the system interface side
system.mem_ctrls12.bytesWrittenSys               4864                       # Total written bytes from the system interface side
system.mem_ctrls12.servicedByWrQ                    0                       # Number of DRAM read bursts serviced by the write queue
system.mem_ctrls12.mergedWrBursts                   0                       # Number of DRAM write bursts merged with an existing one
system.mem_ctrls12.neitherReadNorWriteReqs           59                       # Number of requests that are neither read nor write
system.mem_ctrls12.perBankRdBursts::0              16                       # Per bank write bursts
system.mem_ctrls12.perBankRdBursts::1              40                       # Per bank write bursts
system.mem_ctrls12.perBankRdBursts::2              24                       # Per bank write bursts
system.mem_ctrls12.perBankRdBursts::3              32                       # Per bank write bursts
system.mem_ctrls12.perBankRdBursts::4              32                       # Per bank write bursts
system.mem_ctrls12.perBankRdBursts::5              16                       # Per bank write bursts
system.mem_ctrls12.perBankRdBursts::6               0                       # Per bank write bursts
system.mem_ctrls12.perBankRdBursts::7              48                       # Per bank write bursts
system.mem_ctrls12.perBankWrBursts::0              24                       # Per bank write bursts
system.mem_ctrls12.perBankWrBursts::1              16                       # Per bank write bursts
system.mem_ctrls12.perBankWrBursts::2              32                       # Per bank write bursts
system.mem_ctrls12.perBankWrBursts::3               8                       # Per bank write bursts
system.mem_ctrls12.perBankWrBursts::4               8                       # Per bank write bursts
system.mem_ctrls12.perBankWrBursts::5               9                       # Per bank write bursts
system.mem_ctrls12.perBankWrBursts::6              15                       # Per bank write bursts
system.mem_ctrls12.perBankWrBursts::7              40                       # Per bank write bursts
system.mem_ctrls12.numRdRetry                       0                       # Number of times read queue was full causing retry
system.mem_ctrls12.numWrRetry                       0                       # Number of times write queue was full causing retry
system.mem_ctrls12.totGap                 37596394000                       # Total gap between requests
system.mem_ctrls12.readPktSize::0                   0                       # Read request sizes (log2)
system.mem_ctrls12.readPktSize::1                   0                       # Read request sizes (log2)
system.mem_ctrls12.readPktSize::2                   0                       # Read request sizes (log2)
system.mem_ctrls12.readPktSize::3                   0                       # Read request sizes (log2)
system.mem_ctrls12.readPktSize::4                   0                       # Read request sizes (log2)
system.mem_ctrls12.readPktSize::5                 208                       # Read request sizes (log2)
system.mem_ctrls12.writePktSize::0                  0                       # Write request sizes (log2)
system.mem_ctrls12.writePktSize::1                  0                       # Write request sizes (log2)
system.mem_ctrls12.writePktSize::2                  0                       # Write request sizes (log2)
system.mem_ctrls12.writePktSize::3                  0                       # Write request sizes (log2)
system.mem_ctrls12.writePktSize::4                  0                       # Write request sizes (log2)
system.mem_ctrls12.writePktSize::5                152                       # Write request sizes (log2)
system.mem_ctrls12.rdQLenPdf::0                    26                       # What read queue length does an incoming req see
system.mem_ctrls12.rdQLenPdf::1                    26                       # What read queue length does an incoming req see
system.mem_ctrls12.rdQLenPdf::2                    26                       # What read queue length does an incoming req see
system.mem_ctrls12.rdQLenPdf::3                    26                       # What read queue length does an incoming req see
system.mem_ctrls12.rdQLenPdf::4                    26                       # What read queue length does an incoming req see
system.mem_ctrls12.rdQLenPdf::5                    26                       # What read queue length does an incoming req see
system.mem_ctrls12.rdQLenPdf::6                    26                       # What read queue length does an incoming req see
system.mem_ctrls12.rdQLenPdf::7                    26                       # What read queue length does an incoming req see
system.mem_ctrls12.rdQLenPdf::8                     0                       # What read queue length does an incoming req see
system.mem_ctrls12.rdQLenPdf::9                     0                       # What read queue length does an incoming req see
system.mem_ctrls12.rdQLenPdf::10                    0                       # What read queue length does an incoming req see
system.mem_ctrls12.rdQLenPdf::11                    0                       # What read queue length does an incoming req see
system.mem_ctrls12.rdQLenPdf::12                    0                       # What read queue length does an incoming req see
system.mem_ctrls12.rdQLenPdf::13                    0                       # What read queue length does an incoming req see
system.mem_ctrls12.rdQLenPdf::14                    0                       # What read queue length does an incoming req see
system.mem_ctrls12.rdQLenPdf::15                    0                       # What read queue length does an incoming req see
system.mem_ctrls12.rdQLenPdf::16                    0                       # What read queue length does an incoming req see
system.mem_ctrls12.rdQLenPdf::17                    0                       # What read queue length does an incoming req see
system.mem_ctrls12.rdQLenPdf::18                    0                       # What read queue length does an incoming req see
system.mem_ctrls12.rdQLenPdf::19                    0                       # What read queue length does an incoming req see
system.mem_ctrls12.rdQLenPdf::20                    0                       # What read queue length does an incoming req see
system.mem_ctrls12.rdQLenPdf::21                    0                       # What read queue length does an incoming req see
system.mem_ctrls12.rdQLenPdf::22                    0                       # What read queue length does an incoming req see
system.mem_ctrls12.rdQLenPdf::23                    0                       # What read queue length does an incoming req see
system.mem_ctrls12.rdQLenPdf::24                    0                       # What read queue length does an incoming req see
system.mem_ctrls12.rdQLenPdf::25                    0                       # What read queue length does an incoming req see
system.mem_ctrls12.rdQLenPdf::26                    0                       # What read queue length does an incoming req see
system.mem_ctrls12.rdQLenPdf::27                    0                       # What read queue length does an incoming req see
system.mem_ctrls12.rdQLenPdf::28                    0                       # What read queue length does an incoming req see
system.mem_ctrls12.rdQLenPdf::29                    0                       # What read queue length does an incoming req see
system.mem_ctrls12.rdQLenPdf::30                    0                       # What read queue length does an incoming req see
system.mem_ctrls12.rdQLenPdf::31                    0                       # What read queue length does an incoming req see
system.mem_ctrls12.rdQLenPdf::32                    0                       # What read queue length does an incoming req see
system.mem_ctrls12.rdQLenPdf::33                    0                       # What read queue length does an incoming req see
system.mem_ctrls12.rdQLenPdf::34                    0                       # What read queue length does an incoming req see
system.mem_ctrls12.rdQLenPdf::35                    0                       # What read queue length does an incoming req see
system.mem_ctrls12.rdQLenPdf::36                    0                       # What read queue length does an incoming req see
system.mem_ctrls12.rdQLenPdf::37                    0                       # What read queue length does an incoming req see
system.mem_ctrls12.rdQLenPdf::38                    0                       # What read queue length does an incoming req see
system.mem_ctrls12.rdQLenPdf::39                    0                       # What read queue length does an incoming req see
system.mem_ctrls12.rdQLenPdf::40                    0                       # What read queue length does an incoming req see
system.mem_ctrls12.rdQLenPdf::41                    0                       # What read queue length does an incoming req see
system.mem_ctrls12.rdQLenPdf::42                    0                       # What read queue length does an incoming req see
system.mem_ctrls12.rdQLenPdf::43                    0                       # What read queue length does an incoming req see
system.mem_ctrls12.rdQLenPdf::44                    0                       # What read queue length does an incoming req see
system.mem_ctrls12.rdQLenPdf::45                    0                       # What read queue length does an incoming req see
system.mem_ctrls12.rdQLenPdf::46                    0                       # What read queue length does an incoming req see
system.mem_ctrls12.rdQLenPdf::47                    0                       # What read queue length does an incoming req see
system.mem_ctrls12.rdQLenPdf::48                    0                       # What read queue length does an incoming req see
system.mem_ctrls12.rdQLenPdf::49                    0                       # What read queue length does an incoming req see
system.mem_ctrls12.rdQLenPdf::50                    0                       # What read queue length does an incoming req see
system.mem_ctrls12.rdQLenPdf::51                    0                       # What read queue length does an incoming req see
system.mem_ctrls12.rdQLenPdf::52                    0                       # What read queue length does an incoming req see
system.mem_ctrls12.rdQLenPdf::53                    0                       # What read queue length does an incoming req see
system.mem_ctrls12.rdQLenPdf::54                    0                       # What read queue length does an incoming req see
system.mem_ctrls12.rdQLenPdf::55                    0                       # What read queue length does an incoming req see
system.mem_ctrls12.rdQLenPdf::56                    0                       # What read queue length does an incoming req see
system.mem_ctrls12.rdQLenPdf::57                    0                       # What read queue length does an incoming req see
system.mem_ctrls12.rdQLenPdf::58                    0                       # What read queue length does an incoming req see
system.mem_ctrls12.rdQLenPdf::59                    0                       # What read queue length does an incoming req see
system.mem_ctrls12.rdQLenPdf::60                    0                       # What read queue length does an incoming req see
system.mem_ctrls12.rdQLenPdf::61                    0                       # What read queue length does an incoming req see
system.mem_ctrls12.rdQLenPdf::62                    0                       # What read queue length does an incoming req see
system.mem_ctrls12.rdQLenPdf::63                    0                       # What read queue length does an incoming req see
system.mem_ctrls12.wrQLenPdf::0                     0                       # What write queue length does an incoming req see
system.mem_ctrls12.wrQLenPdf::1                     0                       # What write queue length does an incoming req see
system.mem_ctrls12.wrQLenPdf::2                     0                       # What write queue length does an incoming req see
system.mem_ctrls12.wrQLenPdf::3                     0                       # What write queue length does an incoming req see
system.mem_ctrls12.wrQLenPdf::4                     0                       # What write queue length does an incoming req see
system.mem_ctrls12.wrQLenPdf::5                     0                       # What write queue length does an incoming req see
system.mem_ctrls12.wrQLenPdf::6                     0                       # What write queue length does an incoming req see
system.mem_ctrls12.wrQLenPdf::7                     0                       # What write queue length does an incoming req see
system.mem_ctrls12.wrQLenPdf::8                     0                       # What write queue length does an incoming req see
system.mem_ctrls12.wrQLenPdf::9                     0                       # What write queue length does an incoming req see
system.mem_ctrls12.wrQLenPdf::10                    0                       # What write queue length does an incoming req see
system.mem_ctrls12.wrQLenPdf::11                    0                       # What write queue length does an incoming req see
system.mem_ctrls12.wrQLenPdf::12                    0                       # What write queue length does an incoming req see
system.mem_ctrls12.wrQLenPdf::13                    0                       # What write queue length does an incoming req see
system.mem_ctrls12.wrQLenPdf::14                    0                       # What write queue length does an incoming req see
system.mem_ctrls12.wrQLenPdf::15                    6                       # What write queue length does an incoming req see
system.mem_ctrls12.wrQLenPdf::16                    6                       # What write queue length does an incoming req see
system.mem_ctrls12.wrQLenPdf::17                    6                       # What write queue length does an incoming req see
system.mem_ctrls12.wrQLenPdf::18                    6                       # What write queue length does an incoming req see
system.mem_ctrls12.wrQLenPdf::19                    6                       # What write queue length does an incoming req see
system.mem_ctrls12.wrQLenPdf::20                    6                       # What write queue length does an incoming req see
system.mem_ctrls12.wrQLenPdf::21                    6                       # What write queue length does an incoming req see
system.mem_ctrls12.wrQLenPdf::22                    6                       # What write queue length does an incoming req see
system.mem_ctrls12.wrQLenPdf::23                    6                       # What write queue length does an incoming req see
system.mem_ctrls12.wrQLenPdf::24                    7                       # What write queue length does an incoming req see
system.mem_ctrls12.wrQLenPdf::25                    7                       # What write queue length does an incoming req see
system.mem_ctrls12.wrQLenPdf::26                    7                       # What write queue length does an incoming req see
system.mem_ctrls12.wrQLenPdf::27                    7                       # What write queue length does an incoming req see
system.mem_ctrls12.wrQLenPdf::28                    7                       # What write queue length does an incoming req see
system.mem_ctrls12.wrQLenPdf::29                    7                       # What write queue length does an incoming req see
system.mem_ctrls12.wrQLenPdf::30                    7                       # What write queue length does an incoming req see
system.mem_ctrls12.wrQLenPdf::31                    7                       # What write queue length does an incoming req see
system.mem_ctrls12.wrQLenPdf::32                    6                       # What write queue length does an incoming req see
system.mem_ctrls12.wrQLenPdf::33                    6                       # What write queue length does an incoming req see
system.mem_ctrls12.wrQLenPdf::34                    6                       # What write queue length does an incoming req see
system.mem_ctrls12.wrQLenPdf::35                    6                       # What write queue length does an incoming req see
system.mem_ctrls12.wrQLenPdf::36                    6                       # What write queue length does an incoming req see
system.mem_ctrls12.wrQLenPdf::37                    6                       # What write queue length does an incoming req see
system.mem_ctrls12.wrQLenPdf::38                    6                       # What write queue length does an incoming req see
system.mem_ctrls12.wrQLenPdf::39                    0                       # What write queue length does an incoming req see
system.mem_ctrls12.wrQLenPdf::40                    0                       # What write queue length does an incoming req see
system.mem_ctrls12.wrQLenPdf::41                    0                       # What write queue length does an incoming req see
system.mem_ctrls12.wrQLenPdf::42                    0                       # What write queue length does an incoming req see
system.mem_ctrls12.wrQLenPdf::43                    0                       # What write queue length does an incoming req see
system.mem_ctrls12.wrQLenPdf::44                    0                       # What write queue length does an incoming req see
system.mem_ctrls12.wrQLenPdf::45                    0                       # What write queue length does an incoming req see
system.mem_ctrls12.wrQLenPdf::46                    0                       # What write queue length does an incoming req see
system.mem_ctrls12.wrQLenPdf::47                    0                       # What write queue length does an incoming req see
system.mem_ctrls12.wrQLenPdf::48                    0                       # What write queue length does an incoming req see
system.mem_ctrls12.wrQLenPdf::49                    0                       # What write queue length does an incoming req see
system.mem_ctrls12.wrQLenPdf::50                    0                       # What write queue length does an incoming req see
system.mem_ctrls12.wrQLenPdf::51                    0                       # What write queue length does an incoming req see
system.mem_ctrls12.wrQLenPdf::52                    0                       # What write queue length does an incoming req see
system.mem_ctrls12.wrQLenPdf::53                    0                       # What write queue length does an incoming req see
system.mem_ctrls12.wrQLenPdf::54                    0                       # What write queue length does an incoming req see
system.mem_ctrls12.wrQLenPdf::55                    0                       # What write queue length does an incoming req see
system.mem_ctrls12.wrQLenPdf::56                    0                       # What write queue length does an incoming req see
system.mem_ctrls12.wrQLenPdf::57                    0                       # What write queue length does an incoming req see
system.mem_ctrls12.wrQLenPdf::58                    0                       # What write queue length does an incoming req see
system.mem_ctrls12.wrQLenPdf::59                    0                       # What write queue length does an incoming req see
system.mem_ctrls12.wrQLenPdf::60                    0                       # What write queue length does an incoming req see
system.mem_ctrls12.wrQLenPdf::61                    0                       # What write queue length does an incoming req see
system.mem_ctrls12.wrQLenPdf::62                    0                       # What write queue length does an incoming req see
system.mem_ctrls12.wrQLenPdf::63                    0                       # What write queue length does an incoming req see
system.mem_ctrls12.bytesPerActivate::samples           51                       # Bytes accessed per row activation
system.mem_ctrls12.bytesPerActivate::mean   225.882353                       # Bytes accessed per row activation
system.mem_ctrls12.bytesPerActivate::gmean   197.320180                       # Bytes accessed per row activation
system.mem_ctrls12.bytesPerActivate::stdev    72.241165                       # Bytes accessed per row activation
system.mem_ctrls12.bytesPerActivate::32-63            6     11.76%     11.76% # Bytes accessed per row activation
system.mem_ctrls12.bytesPerActivate::224-255            6     11.76%     23.53% # Bytes accessed per row activation
system.mem_ctrls12.bytesPerActivate::256-287           39     76.47%    100.00% # Bytes accessed per row activation
system.mem_ctrls12.bytesPerActivate::total           51                       # Bytes accessed per row activation
system.mem_ctrls12.rdPerTurnAround::samples            6                       # Reads before turning the bus around for writes
system.mem_ctrls12.rdPerTurnAround::mean           44                       # Reads before turning the bus around for writes
system.mem_ctrls12.rdPerTurnAround::gmean    34.413263                       # Reads before turning the bus around for writes
system.mem_ctrls12.rdPerTurnAround::stdev    29.826163                       # Reads before turning the bus around for writes
system.mem_ctrls12.rdPerTurnAround::8-9             1     16.67%     16.67% # Reads before turning the bus around for writes
system.mem_ctrls12.rdPerTurnAround::32-33            3     50.00%     66.67% # Reads before turning the bus around for writes
system.mem_ctrls12.rdPerTurnAround::72-73            1     16.67%     83.33% # Reads before turning the bus around for writes
system.mem_ctrls12.rdPerTurnAround::88-89            1     16.67%    100.00% # Reads before turning the bus around for writes
system.mem_ctrls12.rdPerTurnAround::total            6                       # Reads before turning the bus around for writes
system.mem_ctrls12.wrPerTurnAround::samples            6                       # Writes before turning the bus around for reads
system.mem_ctrls12.wrPerTurnAround::mean    25.333333                       # Writes before turning the bus around for reads
system.mem_ctrls12.wrPerTurnAround::gmean    25.178762                       # Writes before turning the bus around for reads
system.mem_ctrls12.wrPerTurnAround::stdev     3.265986                       # Writes before turning the bus around for reads
system.mem_ctrls12.wrPerTurnAround::24              5     83.33%     83.33% # Writes before turning the bus around for reads
system.mem_ctrls12.wrPerTurnAround::32              1     16.67%    100.00% # Writes before turning the bus around for reads
system.mem_ctrls12.wrPerTurnAround::total            6                       # Writes before turning the bus around for reads
system.mem_ctrls12.totQLat                    5189600                       # Total ticks spent queuing
system.mem_ctrls12.totMemAccLat               8715200                       # Total ticks spent from burst creation until serviced by the DRAM
system.mem_ctrls12.totBusLat                   665600                       # Total ticks spent in databus transfers
system.mem_ctrls12.avgQLat                   24950.00                       # Average queueing delay per DRAM burst
system.mem_ctrls12.avgBusLat                  3200.00                       # Average bus latency per DRAM burst
system.mem_ctrls12.avgMemAccLat              41900.00                       # Average memory access latency per DRAM burst
system.mem_ctrls12.avgRdBW                       0.18                       # Average DRAM read bandwidth in MiByte/s
system.mem_ctrls12.avgWrBW                       0.13                       # Average achieved write bandwidth in MiByte/s
system.mem_ctrls12.avgRdBWSys                    0.18                       # Average system read bandwidth in MiByte/s
system.mem_ctrls12.avgWrBWSys                    0.13                       # Average system write bandwidth in MiByte/s
system.mem_ctrls12.peakBW                    10000.00                       # Theoretical peak bandwidth in MiByte/s
system.mem_ctrls12.busUtil                       0.00                       # Data bus utilization in percentage
system.mem_ctrls12.busUtilRead                   0.00                       # Data bus utilization in percentage for reads
system.mem_ctrls12.busUtilWrite                  0.00                       # Data bus utilization in percentage for writes
system.mem_ctrls12.avgRdQLen                     8.00                       # Average read queue length when enqueuing
system.mem_ctrls12.avgWrQLen                    30.71                       # Average write queue length when enqueuing
system.mem_ctrls12.readRowHits                    182                       # Number of row buffer hits during reads
system.mem_ctrls12.writeRowHits                   127                       # Number of row buffer hits during writes
system.mem_ctrls12.readRowHitRate               87.50                       # Row buffer hit rate for reads
system.mem_ctrls12.writeRowHitRate              83.55                       # Row buffer hit rate for writes
system.mem_ctrls12.avgGap                835475422.22                       # Average gap between requests
system.mem_ctrls12.pageHitRate                  85.83                       # Row buffer hit rate, read and write combined
system.mem_ctrls12.memoryStateTime::IDLE  36794625500                       # Time in different power states
system.mem_ctrls12.memoryStateTime::REF     817743600                       # Time in different power states
system.mem_ctrls12.memoryStateTime::PRE_PDN            0                       # Time in different power states
system.mem_ctrls12.memoryStateTime::ACT      12535900                       # Time in different power states
system.mem_ctrls12.memoryStateTime::ACT_PDN            0                       # Time in different power states
system.mem_ctrls12.actEnergy::0          651369.600000                       # Energy for activate commands per rank (pJ)
system.mem_ctrls12.actEnergy::1          613267.200000                       # Energy for activate commands per rank (pJ)
system.mem_ctrls12.actEnergy::2          623548.800000                       # Energy for activate commands per rank (pJ)
system.mem_ctrls12.actEnergy::3          580003.200000                       # Energy for activate commands per rank (pJ)
system.mem_ctrls12.preEnergy::0                439416                       # Energy for precharge commands per rank (pJ)
system.mem_ctrls12.preEnergy::1          413712.000000                       # Energy for precharge commands per rank (pJ)
system.mem_ctrls12.preEnergy::2                420648                       # Energy for precharge commands per rank (pJ)
system.mem_ctrls12.preEnergy::3          391272.000000                       # Energy for precharge commands per rank (pJ)
system.mem_ctrls12.readEnergy::0         2632281.600000                       # Energy for read commands per rank (pJ)
system.mem_ctrls12.readEnergy::1              2496000                       # Energy for read commands per rank (pJ)
system.mem_ctrls12.readEnergy::2         2484518.400000                       # Energy for read commands per rank (pJ)
system.mem_ctrls12.readEnergy::3         2320281.600000                       # Energy for read commands per rank (pJ)
system.mem_ctrls12.writeEnergy::0             1078272                       # Energy for write commands per rank (pJ)
system.mem_ctrls12.writeEnergy::1        982056.960000                       # Energy for write commands per rank (pJ)
system.mem_ctrls12.writeEnergy::2        1025602.560000                       # Energy for write commands per rank (pJ)
system.mem_ctrls12.writeEnergy::3        922337.280000                       # Energy for write commands per rank (pJ)
system.mem_ctrls12.refreshEnergy::0      579014807.040000                       # Energy for refresh commands per rank (pJ)
system.mem_ctrls12.refreshEnergy::1      579014807.040000                       # Energy for refresh commands per rank (pJ)
system.mem_ctrls12.refreshEnergy::2      579014807.040000                       # Energy for refresh commands per rank (pJ)
system.mem_ctrls12.refreshEnergy::3      579014807.040000                       # Energy for refresh commands per rank (pJ)
system.mem_ctrls12.actBackEnergy::0      185013408.960000                       # Energy for active background per rank (pJ)
system.mem_ctrls12.actBackEnergy::1      184652366.400000                       # Energy for active background per rank (pJ)
system.mem_ctrls12.actBackEnergy::2      184673652.480000                       # Energy for active background per rank (pJ)
system.mem_ctrls12.actBackEnergy::3      186071529.600000                       # Energy for active background per rank (pJ)
system.mem_ctrls12.preBackEnergy::0        7990475184                       # Energy for precharge background per rank (pJ)
[...]
system.cpu7.dcache.demand_miss_latency::system.cpu7.data   9736278676                       # number of demand (read+write) miss cycles
system.cpu7.dcache.demand_miss_latency::total   9736278676                       # number of demand (read+write) miss cycles
system.cpu7.dcache.overall_miss_latency::system.cpu7.data   9736278676                       # number of overall miss cycles
system.cpu7.dcache.overall_miss_latency::total   9736278676                       # number of overall miss cycles
system.cpu7.dcache.ReadReq_accesses::system.cpu7.data      5218823                       # number of ReadReq accesses(hits+misses)
system.cpu7.dcache.ReadReq_accesses::total      5218823                       # number of ReadReq accesses(hits+misses)
system.cpu7.dcache.WriteReq_accesses::system.cpu7.data       386480                       # number of WriteReq accesses(hits+misses)
system.cpu7.dcache.WriteReq_accesses::total       386480                       # number of WriteReq accesses(hits+misses)
system.cpu7.dcache.SoftPFReq_accesses::system.cpu7.data          328                       # number of SoftPFReq accesses(hits+misses)
system.cpu7.dcache.SoftPFReq_accesses::total          328                       # number of SoftPFReq accesses(hits+misses)
system.cpu7.dcache.LoadLockedReq_accesses::system.cpu7.data        47756                       # number of LoadLockedReq accesses(hits+misses)
system.cpu7.dcache.LoadLockedReq_accesses::total        47756                       # number of LoadLockedReq accesses(hits+misses)
system.cpu7.dcache.StoreCondReq_accesses::system.cpu7.data        26783                       # number of StoreCondReq accesses(hits+misses)
system.cpu7.dcache.StoreCondReq_accesses::total        26783                       # number of StoreCondReq accesses(hits+misses)
system.cpu7.dcache.demand_accesses::system.cpu7.data      5605303                       # number of demand (read+write) accesses
system.cpu7.dcache.demand_accesses::total      5605303                       # number of demand (read+write) accesses
system.cpu7.dcache.overall_accesses::system.cpu7.data      5605631                       # number of overall (read+write) accesses
system.cpu7.dcache.overall_accesses::total      5605631                       # number of overall (read+write) accesses
system.cpu7.dcache.ReadReq_miss_rate::system.cpu7.data     0.037339                       # miss rate for ReadReq accesses
system.cpu7.dcache.ReadReq_miss_rate::total     0.037339                       # miss rate for ReadReq accesses
system.cpu7.dcache.WriteReq_miss_rate::system.cpu7.data     0.028452                       # miss rate for WriteReq accesses
system.cpu7.dcache.WriteReq_miss_rate::total     0.028452                       # miss rate for WriteReq accesses
system.cpu7.dcache.SoftPFReq_miss_rate::system.cpu7.data     0.204268                       # miss rate for SoftPFReq accesses
system.cpu7.dcache.SoftPFReq_miss_rate::total     0.204268                       # miss rate for SoftPFReq accesses
system.cpu7.dcache.LoadLockedReq_miss_rate::system.cpu7.data     0.550130                       # miss rate for LoadLockedReq accesses
system.cpu7.dcache.LoadLockedReq_miss_rate::total     0.550130                       # miss rate for LoadLockedReq accesses
system.cpu7.dcache.StoreCondReq_miss_rate::system.cpu7.data     0.495725                       # miss rate for StoreCondReq accesses
system.cpu7.dcache.StoreCondReq_miss_rate::total     0.495725                       # miss rate for StoreCondReq accesses
system.cpu7.dcache.demand_miss_rate::system.cpu7.data     0.036727                       # miss rate for demand accesses
system.cpu7.dcache.demand_miss_rate::total     0.036727                       # miss rate for demand accesses
system.cpu7.dcache.overall_miss_rate::system.cpu7.data     0.036736                       # miss rate for overall accesses
system.cpu7.dcache.overall_miss_rate::total     0.036736                       # miss rate for overall accesses
system.cpu7.dcache.ReadReq_avg_miss_latency::system.cpu7.data 49608.602644                       # average ReadReq miss latency
system.cpu7.dcache.ReadReq_avg_miss_latency::total 49608.602644                       # average ReadReq miss latency
system.cpu7.dcache.WriteReq_avg_miss_latency::system.cpu7.data  6288.604583                       # average WriteReq miss latency
system.cpu7.dcache.WriteReq_avg_miss_latency::total  6288.604583                       # average WriteReq miss latency
system.cpu7.dcache.LoadLockedReq_avg_miss_latency::system.cpu7.data 19606.848622                       # average LoadLockedReq miss latency
system.cpu7.dcache.LoadLockedReq_avg_miss_latency::total 19606.848622                       # average LoadLockedReq miss latency
system.cpu7.dcache.StoreCondReq_avg_miss_latency::system.cpu7.data 25099.871959                       # average StoreCondReq miss latency
system.cpu7.dcache.StoreCondReq_avg_miss_latency::total 25099.871959                       # average StoreCondReq miss latency
system.cpu7.dcache.StoreCondFailReq_avg_miss_latency::system.cpu7.data          inf                       # average StoreCondFailReq miss latency
system.cpu7.dcache.StoreCondFailReq_avg_miss_latency::total          inf                       # average StoreCondFailReq miss latency
system.cpu7.dcache.demand_avg_miss_latency::system.cpu7.data 47294.712412                       # average overall miss latency
system.cpu7.dcache.demand_avg_miss_latency::total 47294.712412                       # average overall miss latency
system.cpu7.dcache.overall_avg_miss_latency::system.cpu7.data 47279.324997                       # average overall miss latency
system.cpu7.dcache.overall_avg_miss_latency::total 47279.324997                       # average overall miss latency
system.cpu7.dcache.blocked_cycles::no_mshrs            0                       # number of cycles access was blocked
system.cpu7.dcache.blocked_cycles::no_targets            0                       # number of cycles access was blocked
system.cpu7.dcache.blocked::no_mshrs                0                       # number of cycles access was blocked
system.cpu7.dcache.blocked::no_targets              0                       # number of cycles access was blocked
system.cpu7.dcache.avg_blocked_cycles::no_mshrs          0                       # average number of cycles each access was blocked
system.cpu7.dcache.avg_blocked_cycles::no_targets          0                       # average number of cycles each access was blocked
system.cpu7.dcache.fast_writes                      0                       # number of fast writes performed
system.cpu7.dcache.cache_copies                     0                       # number of cache copies performed
system.cpu7.dcache.writebacks::writebacks          207                       # number of writebacks
system.cpu7.dcache.writebacks::total              207                       # number of writebacks
system.cpu7.dcache.ReadReq_mshr_hits::system.cpu7.data            2                       # number of ReadReq MSHR hits
system.cpu7.dcache.ReadReq_mshr_hits::total            2                       # number of ReadReq MSHR hits
system.cpu7.dcache.WriteReq_mshr_hits::system.cpu7.data            1                       # number of WriteReq MSHR hits
system.cpu7.dcache.WriteReq_mshr_hits::total            1                       # number of WriteReq MSHR hits
system.cpu7.dcache.LoadLockedReq_mshr_hits::system.cpu7.data           50                       # number of LoadLockedReq MSHR hits
system.cpu7.dcache.LoadLockedReq_mshr_hits::total           50                       # number of LoadLockedReq MSHR hits
system.cpu7.dcache.demand_mshr_hits::system.cpu7.data            3                       # number of demand (read+write) MSHR hits
system.cpu7.dcache.demand_mshr_hits::total            3                       # number of demand (read+write) MSHR hits
system.cpu7.dcache.overall_mshr_hits::system.cpu7.data            3                       # number of overall MSHR hits
system.cpu7.dcache.overall_mshr_hits::total            3                       # number of overall MSHR hits
system.cpu7.dcache.ReadReq_mshr_misses::system.cpu7.data       194866                       # number of ReadReq MSHR misses
system.cpu7.dcache.ReadReq_mshr_misses::total       194866                       # number of ReadReq MSHR misses
system.cpu7.dcache.WriteReq_mshr_misses::system.cpu7.data        10995                       # number of WriteReq MSHR misses
system.cpu7.dcache.WriteReq_mshr_misses::total        10995                       # number of WriteReq MSHR misses
system.cpu7.dcache.SoftPFReq_mshr_misses::system.cpu7.data           67                       # number of SoftPFReq MSHR misses
system.cpu7.dcache.SoftPFReq_mshr_misses::total           67                       # number of SoftPFReq MSHR misses
system.cpu7.dcache.LoadLockedReq_mshr_misses::system.cpu7.data        26222                       # number of LoadLockedReq MSHR misses
system.cpu7.dcache.LoadLockedReq_mshr_misses::total        26222                       # number of LoadLockedReq MSHR misses
system.cpu7.dcache.StoreCondReq_mshr_misses::system.cpu7.data        13277                       # number of StoreCondReq MSHR misses
system.cpu7.dcache.StoreCondReq_mshr_misses::total        13277                       # number of StoreCondReq MSHR misses
system.cpu7.dcache.demand_mshr_misses::system.cpu7.data       205861                       # number of demand (read+write) MSHR misses
system.cpu7.dcache.demand_mshr_misses::total       205861                       # number of demand (read+write) MSHR misses
system.cpu7.dcache.overall_mshr_misses::system.cpu7.data       205928                       # number of overall MSHR misses
system.cpu7.dcache.overall_mshr_misses::total       205928                       # number of overall MSHR misses
system.cpu7.dcache.ReadReq_mshr_miss_latency::system.cpu7.data   9134890320                       # number of ReadReq MSHR miss cycles
system.cpu7.dcache.ReadReq_mshr_miss_latency::total   9134890320                       # number of ReadReq MSHR miss cycles
system.cpu7.dcache.WriteReq_mshr_miss_latency::system.cpu7.data     47062004                       # number of WriteReq MSHR miss cycles
system.cpu7.dcache.WriteReq_mshr_miss_latency::total     47062004                       # number of WriteReq MSHR miss cycles
system.cpu7.dcache.SoftPFReq_mshr_miss_latency::system.cpu7.data      1372000                       # number of SoftPFReq MSHR miss cycles
system.cpu7.dcache.SoftPFReq_mshr_miss_latency::total      1372000                       # number of SoftPFReq MSHR miss cycles
system.cpu7.dcache.LoadLockedReq_mshr_miss_latency::system.cpu7.data    449173873                       # number of LoadLockedReq MSHR miss cycles
system.cpu7.dcache.LoadLockedReq_mshr_miss_latency::total    449173873                       # number of LoadLockedReq MSHR miss cycles
system.cpu7.dcache.StoreCondReq_mshr_miss_latency::system.cpu7.data    317153000                       # number of StoreCondReq MSHR miss cycles
system.cpu7.dcache.StoreCondReq_mshr_miss_latency::total    317153000                       # number of StoreCondReq MSHR miss cycles
system.cpu7.dcache.StoreCondFailReq_mshr_miss_latency::system.cpu7.data    138544000                       # number of StoreCondFailReq MSHR miss cycles
system.cpu7.dcache.StoreCondFailReq_mshr_miss_latency::total    138544000                       # number of StoreCondFailReq MSHR miss cycles
system.cpu7.dcache.demand_mshr_miss_latency::system.cpu7.data   9181952324                       # number of demand (read+write) MSHR miss cycles
system.cpu7.dcache.demand_mshr_miss_latency::total   9181952324                       # number of demand (read+write) MSHR miss cycles
system.cpu7.dcache.overall_mshr_miss_latency::system.cpu7.data   9183324324                       # number of overall MSHR miss cycles
system.cpu7.dcache.overall_mshr_miss_latency::total   9183324324                       # number of overall MSHR miss cycles
system.cpu7.dcache.ReadReq_mshr_uncacheable_latency::system.cpu7.data       713000                       # number of ReadReq MSHR uncacheable cycles
system.cpu7.dcache.ReadReq_mshr_uncacheable_latency::total       713000                       # number of ReadReq MSHR uncacheable cycles
system.cpu7.dcache.WriteReq_mshr_uncacheable_latency::system.cpu7.data       491500                       # number of WriteReq MSHR uncacheable cycles
system.cpu7.dcache.WriteReq_mshr_uncacheable_latency::total       491500                       # number of WriteReq MSHR uncacheable cycles
system.cpu7.dcache.overall_mshr_uncacheable_latency::system.cpu7.data      1204500                       # number of overall MSHR uncacheable cycles
system.cpu7.dcache.overall_mshr_uncacheable_latency::total      1204500                       # number of overall MSHR uncacheable cycles
system.cpu7.dcache.ReadReq_mshr_miss_rate::system.cpu7.data     0.037339                       # mshr miss rate for ReadReq accesses
system.cpu7.dcache.ReadReq_mshr_miss_rate::total     0.037339                       # mshr miss rate for ReadReq accesses
system.cpu7.dcache.WriteReq_mshr_miss_rate::system.cpu7.data     0.028449                       # mshr miss rate for WriteReq accesses
system.cpu7.dcache.WriteReq_mshr_miss_rate::total     0.028449                       # mshr miss rate for WriteReq accesses
system.cpu7.dcache.SoftPFReq_mshr_miss_rate::system.cpu7.data     0.204268                       # mshr miss rate for SoftPFReq accesses
system.cpu7.dcache.SoftPFReq_mshr_miss_rate::total     0.204268                       # mshr miss rate for SoftPFReq accesses
system.cpu7.dcache.LoadLockedReq_mshr_miss_rate::system.cpu7.data     0.549083                       # mshr miss rate for LoadLockedReq accesses
system.cpu7.dcache.LoadLockedReq_mshr_miss_rate::total     0.549083                       # mshr miss rate for LoadLockedReq accesses
system.cpu7.dcache.StoreCondReq_mshr_miss_rate::system.cpu7.data     0.495725                       # mshr miss rate for StoreCondReq accesses
system.cpu7.dcache.StoreCondReq_mshr_miss_rate::total     0.495725                       # mshr miss rate for StoreCondReq accesses
system.cpu7.dcache.demand_mshr_miss_rate::system.cpu7.data     0.036726                       # mshr miss rate for demand accesses
system.cpu7.dcache.demand_mshr_miss_rate::total     0.036726                       # mshr miss rate for demand accesses
system.cpu7.dcache.overall_mshr_miss_rate::system.cpu7.data     0.036736                       # mshr miss rate for overall accesses
system.cpu7.dcache.overall_mshr_miss_rate::total     0.036736                       # mshr miss rate for overall accesses
system.cpu7.dcache.ReadReq_avg_mshr_miss_latency::system.cpu7.data 46877.804851                       # average ReadReq mshr miss latency
system.cpu7.dcache.ReadReq_avg_mshr_miss_latency::total 46877.804851                       # average ReadReq mshr miss latency
system.cpu7.dcache.WriteReq_avg_mshr_miss_latency::system.cpu7.data  4280.309595                       # average WriteReq mshr miss latency
system.cpu7.dcache.WriteReq_avg_mshr_miss_latency::total  4280.309595                       # average WriteReq mshr miss latency
system.cpu7.dcache.SoftPFReq_avg_mshr_miss_latency::system.cpu7.data 20477.611940                       # average SoftPFReq mshr miss latency
system.cpu7.dcache.SoftPFReq_avg_mshr_miss_latency::total 20477.611940                       # average SoftPFReq mshr miss latency
system.cpu7.dcache.LoadLockedReq_avg_mshr_miss_latency::system.cpu7.data 17129.657273                       # average LoadLockedReq mshr miss latency
system.cpu7.dcache.LoadLockedReq_avg_mshr_miss_latency::total 17129.657273                       # average LoadLockedReq mshr miss latency
system.cpu7.dcache.StoreCondReq_avg_mshr_miss_latency::system.cpu7.data 23887.399262                       # average StoreCondReq mshr miss latency
system.cpu7.dcache.StoreCondReq_avg_mshr_miss_latency::total 23887.399262                       # average StoreCondReq mshr miss latency
system.cpu7.dcache.StoreCondFailReq_avg_mshr_miss_latency::system.cpu7.data          inf                       # average StoreCondFailReq mshr miss latency
system.cpu7.dcache.StoreCondFailReq_avg_mshr_miss_latency::total          inf                       # average StoreCondFailReq mshr miss latency
system.cpu7.dcache.demand_avg_mshr_miss_latency::system.cpu7.data 44602.680080                       # average overall mshr miss latency
system.cpu7.dcache.demand_avg_mshr_miss_latency::total 44602.680080                       # average overall mshr miss latency
system.cpu7.dcache.overall_avg_mshr_miss_latency::system.cpu7.data 44594.830834                       # average overall mshr miss latency
system.cpu7.dcache.overall_avg_mshr_miss_latency::total 44594.830834                       # average overall mshr miss latency
system.cpu7.dcache.ReadReq_avg_mshr_uncacheable_latency::system.cpu7.data          inf                       # average ReadReq mshr uncacheable latency
system.cpu7.dcache.ReadReq_avg_mshr_uncacheable_latency::total          inf                       # average ReadReq mshr uncacheable latency
system.cpu7.dcache.WriteReq_avg_mshr_uncacheable_latency::system.cpu7.data          inf                       # average WriteReq mshr uncacheable latency
system.cpu7.dcache.WriteReq_avg_mshr_uncacheable_latency::total          inf                       # average WriteReq mshr uncacheable latency
system.cpu7.dcache.overall_avg_mshr_uncacheable_latency::system.cpu7.data          inf                       # average overall mshr uncacheable latency
system.cpu7.dcache.overall_avg_mshr_uncacheable_latency::total          inf                       # average overall mshr uncacheable latency
system.cpu7.dcache.no_allocate_misses               0                       # Number of misses that were no-allocate
system.cpu7.dcache.waiting_on_retry            112431                       # Number of times sendTimingReq failed
system.cpu7.dcache.unaccounted_oskernel_rwmiss            0                       # oskernel rwmisses unaccounted b/c virt/phys addr differences
im 37625213000 # Number of ticks simulated [timestamp6_sim_ticks]
system.cpu.totalNumCycles                       601334839
system.cpu.totalIdleCycles                       1195387
system.cpu.int_instructions                       120659767
system.cpu.fp_instructions                       657
system.cpu.branch_instructions                       33106423
system.cpu.load_instructions                       40078126
system.cpu.store_instructions                       4867621
system.cpu.committed_instructions                       155413608
system.cpu.int_regfile_reads                       154749119
system.cpu.int_regfile_writes                       78581631
system.cpu.float_regfile_reads                       593
system.cpu.float_regfile_writes                       64
system.cpu.function_calls                       1013701
system.cpu.ialu_accesses                       120659767
system.cpu.fpu_accesses                       657
system.cpu.itlb.total_accesses                       158190566
system.cpu.itlb.total_misses                       80
system.cpu.icache.read_accesses                       158190486
system.cpu.icache.read_misses                       2836
system.cpu.dcache.read_accesses                       39621318
system.cpu.dcache.write_accesses                       4338007
system.cpu.dtlb.total_accesses                       44733959
system.cpu.dtlb.total_misses                       223
system.cpu.dcache.read_misses                       1458519
system.cpu.dcache.write_misses                       432760
system.mem_ctrls.memory_reads                       396
system.mem_ctrls.memory_writes                       243
